%chk=C:\Users\melih\Desktop\Gaussian\H2S\BondScan.chk
# opt=modredundant hf/3-21g geom=connectivity

H2S Bond Length Scan

0 1
 S                 -1.55279507    0.40372670    0.00000000
 H                 -0.24279507    0.40372670    0.00000000
 H                 -1.99008206    1.63858705    0.00000000

 1 2 1.0 3 1.0
 2
 3

B 1 2 S 10 0.100000
B 1 3 S 10 0.100000

